36

C    5.5321   -0.5000    0.0000   
C    4.6660   -1.0000    0.0000   
C    5.5321    0.5000    0.0000   
C    3.8000   -0.5000    0.0000   
C    4.6660    1.0000    0.0000   
C    3.8000    0.5000    0.0000   
C    6.4260   -1.0347    0.0000   
C    4.6821   -2.0415    0.0000   
C    6.4421    1.0068    0.0000   
C    2.9061   -1.0347    0.0000   
C    4.6821    2.0415    0.0000   
C    2.9061    1.0347    0.0000   
C    7.3321   -0.5208    0.0000   
C    5.5480   -2.5693    0.0000   
C    6.4501   -2.0484    0.0000   
C    2.0000   -0.5208    0.0000   
C    3.7841    2.5693    0.0000   
C    6.4501    2.0484    0.0000   
C    2.0000    0.5208    0.0000   
C    5.5480    2.5693    0.0000   
C    7.3321    0.5208    0.0000   
C    2.8820    2.0484    0.0000   
C    3.7841   -2.5693    0.0000   
C    2.8820   -2.0484    0.0000   
H    7.8678   -0.8329    0.0000   
H    5.5406   -3.1892    0.0000   
H    6.9907   -2.3521    0.0000   
H    1.4643    0.8329    0.0000   
H    3.7864    3.1893    0.0000   
H    7.8653    0.8372    0.0000   
H    5.5406    3.1892    0.0000   
H    1.4643   -0.8329    0.0000   
H    3.7864   -3.1893    0.0000   
H    6.9882    2.3564    0.0000   
H    2.3414    2.3521    0.0000   
H    2.3414   -2.3521    0.0000   